Circuit: * D:\Users\gizmo\Documents\Develop\TLF01\spice\Analog2_0_Ladder_DiffAmp_CS_JFET_R9V_Rbias.asc

Limiting fall time of source v1 to 1.95156e-019
Direct Newton iteration failed to find .op point.  (Use ".option noopiter" to skip.)
Starting Gmin stepping
Gmin = 10
Gmin = 1.07374
Gmin = 0.115292
Gmin = 0.0123794
Gmin = 0.00132923
Gmin = 0.000142725
Gmin = 1.5325e-005
Gmin = 1.6455e-006
Gmin = 1.76685e-007
Gmin = 1.89714e-008
Gmin = 2.03704e-009
Gmin = 2.18725e-010
Gmin = 2.34854e-011
Gmin = 2.52173e-012
Gmin = 2.70769e-013
Gmin = 0
Gmin stepping succeeded in finding the operating point.

.step ri=1000
.step ri=1778.28
.step ri=3162.28
.step ri=5623.41
.step ri=10000
.step ri=17782.8
.step ri=31622.8
.step ri=56234.1
.step ri=100000

Date: Wed May 01 08:57:17 2019
Total elapsed time: 6.600 seconds.

tnom = 27
temp = 27
method = modified trap
totiter = 29086
traniter = 28665
tranpoints = 10373
accept = 7335
rejected = 3038
matrix size = 50
fillins = 96
solver = Normal
Matrix Compiler1: 10.80 KB object code size  2.0/0.9/[0.5]
Matrix Compiler2: 6.53 KB object code size  0.9/1.1/[0.5]


