Circuit: * D:\Users\gizmo\Desktop\TLF01\spice\Analog2_0_Ladder_DiffAmp_CS_JFET_R9V_Ramp.asc

Limiting fall time of source v1 to 1.95156e-019
Direct Newton iteration for .op point succeeded.
.step ri=1000
.step ri=1778.28
.step ri=3162.28
.step ri=5623.41
.step ri=10000
.step ri=17782.8
.step ri=31622.8
.step ri=56234.1
.step ri=100000

Date: Sat Jun 16 07:21:13 2018
Total elapsed time: 0.264 seconds.

tnom = 27
temp = 27
method = trap
totiter = 13
traniter = 0
tranpoints = 0
accept = 0
rejected = 0
matrix size = 50
fillins = 95
solver = Normal
Matrix Compiler1:     577 opcodes
Matrix Compiler2: 6.53 KB object code size

