Circuit: * D:\Users\gizmo\Documents\Develop\TLF01\spice\TLF01_Inspection_20190501.asc

Limiting fall time of source v1 to 1.95156e-019
Direct Newton iteration failed to find .op point.  (Use ".option noopiter" to skip.)
Starting Gmin stepping
Gmin = 10
Gmin = 1.07374
Gmin = 0.115292
Gmin = 0.0123794
Gmin = 0.00132923
Gmin = 0.000142725
Gmin = 1.5325e-005
Gmin = 1.6455e-006
Gmin = 1.76685e-007
Gmin = 1.89714e-008
Gmin = 2.03704e-009
Gmin = 2.18725e-010
Gmin = 2.34854e-011
Gmin = 2.52173e-012
Gmin = 2.70769e-013
Gmin = 0
Gmin stepping succeeded in finding the operating point.


Date: Sat Jun 01 14:00:01 2019
Total elapsed time: 0.596 seconds.

tnom = 27
temp = 27
method = modified trap
totiter = 32418
traniter = 31986
tranpoints = 11363
accept = 7912
rejected = 3451
matrix size = 50
fillins = 96
solver = Normal
Matrix Compiler1: 10.80 KB object code size  1.9/0.9/[0.6]
Matrix Compiler2: 6.53 KB object code size  1.0/1.0/[0.6]


