Circuit: * E:\Users\nerdfloor\Documents\Develop\TLF01\TLF01_Antilog\Antilog_NPNO\spice\Antilog_NPNO.asc

Direct Newton iteration for .op point succeeded.
.step vcutoff=-5
.step vcutoff=0
.step vcutoff=5

Date: Wed Oct 23 10:34:14 2019
Total elapsed time: 0.255 seconds.

tnom = 27
temp = 27
method = modified trap
totiter = 2954
traniter = 2584
tranpoints = 1284
accept = 1235
rejected = 49
matrix size = 21
fillins = 6
solver = Normal
Matrix Compiler1: 1.31 KB object code size  0.4/0.3/[0.2]
Matrix Compiler2: 1.93 KB object code size  0.3/0.3/[0.3]

