Circuit: * D:\Users\gizmo\Documents\Develop\TLF01\TLF01_Antilog\Antilog_NPNO\spice\Antilog_NPNO - R9.asc

Direct Newton iteration failed to find .op point.  (Use ".option noopiter" to skip.)
Starting Gmin stepping
Gmin = 10
Gmin = 1.07374
Gmin = 0.115292
Gmin = 0.0123794
Gmin = 0.00132923
Gmin = 0.000142725
Gmin = 1.5325e-005
Gmin = 1.6455e-006
Gmin = 1.76685e-007
Gmin = 1.89714e-008
Gmin = 2.03704e-009
Gmin = 2.18725e-010
Gmin = 2.34854e-011
Gmin = 2.52173e-012
Gmin = 2.70769e-013
Gmin = 0
Gmin stepping succeeded in finding the operating point.

.step rc=47000
.step rc=68000
.step rc=82000
.step rc=100000

Date: Sat Apr 20 13:28:48 2019
Total elapsed time: 0.600 seconds.

tnom = 27
temp = 27
method = modified trap
totiter = 2926
traniter = 2556
tranpoints = 1270
accept = 1222
rejected = 48
matrix size = 21
fillins = 6
solver = Normal
Matrix Compiler1: 1.31 KB object code size  0.5/0.2/[0.2]
Matrix Compiler2: 1.93 KB object code size  0.2/0.3/[0.3]


