Circuit: * D:\Users\gizmo\Documents\Develop\TLF01\TLF01_Antilog\spice\AntilogMM.asc

WARNING: Less than two connections to node VREF.  This node is used by V6.
Direct Newton iteration for .op point succeeded.
.step rl=4700
.step rl=10000
.step rl=22000

Date: Thu Jul 19 18:06:50 2018
Total elapsed time: 0.117 seconds.

tnom = 27
temp = 27
method = modified trap
totiter = 2103
traniter = 2088
tranpoints = 1045
accept = 1045
rejected = 0
matrix size = 18
fillins = 0
solver = Normal
Matrix Compiler1:      51 opcodes  0.3/[0.1]/0.2
Matrix Compiler2: 1.28 KB object code size  0.2/0.2/[0.2]


