Circuit: * D:\Users\gizmo\Documents\Develop\TLF01\TLF01_Antilog\spice\AntilogMM_saw.asc

WARNING: Less than two connections to node VREF.  This node is used by V6.
Direct Newton iteration for .op point succeeded.
.step rl=4700
.step rl=10000
.step rl=22000

Date: Thu Jul 19 18:27:45 2018
Total elapsed time: 0.112 seconds.

tnom = 27
temp = 27
method = modified trap
totiter = 5003
traniter = 4991
tranpoints = 2331
accept = 2076
rejected = 255
matrix size = 18
fillins = 0
solver = Normal
Matrix Compiler1:      51 opcodes  0.3/0.1/[0.1]
Matrix Compiler2: off  [0.2]/0.2/0.2


